<?xml version="1.0" encoding="UTF-8"?>

<!-- generated on 2025-01-03 10:28:52 by Eclipse SUMO netedit Version 1.12.0
-->

<routes xmlns:xsi="http://www.w3.org/2001/XMLSchema-instance" xsi:noNamespaceSchemaLocation="http://sumo.dlr.de/xsd/routes_file.xsd">
    <route id="r_0" edges="E0 E1"/>
    <vehicle id="v_0" depart="0.00" color="0,254,255" route="r_0"/>
</routes>
