<?xml version="1.0" encoding="UTF-8"?>

<!-- generated on 2025-01-03 10:59:33 by Eclipse SUMO netedit Version 1.12.0
<configuration xmlns:xsi="http://www.w3.org/2001/XMLSchema-instance" xsi:noNamespaceSchemaLocation="http://sumo.dlr.de/xsd/netconvertConfiguration.xsd">

    <output>
        <output-file value="/home/jerald/Desktop/sumo-example/circle/circes.net.xml"/>
    </output>

    <processing>
        <offset.disable-normalization value="true"/>
    </processing>

    <junctions>
        <no-turnarounds value="true"/>
    </junctions>

    <report>
        <aggregate-warnings value="5"/>
    </report>

</configuration>
-->

<net version="1.9" junctionCornerDetail="5" limitTurnSpeed="5.50" xmlns:xsi="http://www.w3.org/2001/XMLSchema-instance" xsi:noNamespaceSchemaLocation="http://sumo.dlr.de/xsd/net_file.xsd">

    <location netOffset="0.00,0.00" convBoundary="-16.74,-14.60,113.07,94.85" origBoundary="10000000000.00,10000000000.00,-10000000000.00,-10000000000.00" projParameter="!"/>

    <edge id=":J0_0" function="internal">
        <lane id=":J0_0_0" index="0" speed="4.18" length="1.28" shape="51.44,92.80 51.74,92.93 52.05,92.99 52.36,92.99 52.68,92.92"/>
    </edge>
    <edge id=":J1_0" function="internal">
        <lane id=":J1_0_0" index="0" speed="4.08" length="1.50" shape="99.47,78.48 99.83,78.33 100.12,78.11 100.35,77.82 100.51,77.47"/>
    </edge>
    <edge id=":J2_0" function="internal">
        <lane id=":J2_0_0" index="0" speed="13.89" length="0.52" shape="111.00,47.09 111.05,46.95 111.08,46.85 111.09,46.74 111.09,46.59"/>
    </edge>
    <edge id=":J3_0" function="internal">
        <lane id=":J3_0_0" index="0" speed="4.25" length="1.24" shape="111.45,13.28 111.45,12.92 111.39,12.67 111.26,12.45 111.03,12.17"/>
    </edge>
    <edge id=":J4_0" function="internal">
        <lane id=":J4_0_0" index="0" speed="4.22" length="1.28" shape="89.27,-11.19 89.01,-11.45 88.79,-11.60 88.53,-11.67 88.16,-11.70"/>
    </edge>
    <edge id=":J5_0" function="internal">
        <lane id=":J5_0_0" index="0" speed="13.89" length="0.39" shape="52.64,-12.98 52.53,-12.99 52.45,-12.98 52.37,-12.97 52.26,-12.95"/>
    </edge>
    <edge id=":J6_0" function="internal">
        <lane id=":J6_0_0" index="0" speed="13.89" length="0.89" shape="21.12,-6.46 20.86,-6.40 20.69,-6.34 20.54,-6.24 20.35,-6.06"/>
    </edge>
    <edge id=":J7_0" function="internal">
        <lane id=":J7_0_0" index="0" speed="4.13" length="1.37" shape="-2.81,15.66 -3.04,15.92 -3.20,16.22 -3.29,16.54 -3.31,16.89"/>
    </edge>
    <edge id=":J8_0" function="internal">
        <lane id=":J8_0_0" index="0" speed="13.89" length="0.84" shape="-2.25,42.74 -2.24,42.98 -2.21,43.15 -2.14,43.31 -2.01,43.52"/>
    </edge>
    <edge id=":J9_0" function="internal">
        <lane id=":J9_0_0" index="0" speed="13.89" length="0.82" shape="16.96,73.73 17.09,73.93 17.20,74.06 17.34,74.16 17.55,74.28"/>
    </edge>

    <edge id="E0" from="J0" to="J1" priority="-1">
        <lane id="E0_0" index="0" speed="13.89" length="48.97" shape="52.68,92.92 99.47,78.48"/>
    </edge>
    <edge id="E1" from="J1" to="J2" priority="-1">
        <lane id="E1_0" index="0" speed="13.89" length="32.14" shape="100.51,77.47 111.00,47.09"/>
    </edge>
    <edge id="E2" from="J2" to="J3" priority="-1">
        <lane id="E2_0" index="0" speed="13.89" length="33.31" shape="111.09,46.59 111.45,13.28"/>
    </edge>
    <edge id="E3" from="J3" to="J4" priority="-1">
        <lane id="E3_0" index="0" speed="13.89" length="31.92" shape="111.03,12.17 89.27,-11.19"/>
    </edge>
    <edge id="E4" from="J4" to="J5" priority="-1">
        <lane id="E4_0" index="0" speed="13.89" length="35.54" shape="88.16,-11.70 52.64,-12.98"/>
    </edge>
    <edge id="E5" from="J5" to="J6" priority="-1">
        <lane id="E5_0" index="0" speed="13.89" length="31.81" shape="52.26,-12.95 21.12,-6.46"/>
    </edge>
    <edge id="E6" from="J6" to="J7" priority="-1">
        <lane id="E6_0" index="0" speed="13.89" length="31.75" shape="20.35,-6.06 -2.81,15.66"/>
    </edge>
    <edge id="E7" from="J7" to="J8" priority="-1">
        <lane id="E7_0" index="0" speed="13.89" length="25.87" shape="-3.31,16.89 -2.25,42.74"/>
    </edge>
    <edge id="E8" from="J8" to="J9" priority="-1">
        <lane id="E8_0" index="0" speed="13.89" length="35.67" shape="-2.01,43.52 16.96,73.73"/>
    </edge>
    <edge id="E9" from="J9" to="J0" priority="-1">
        <lane id="E9_0" index="0" speed="13.89" length="38.62" shape="17.55,74.28 51.44,92.80"/>
    </edge>

    <junction id="J0" type="priority" x="51.86" y="94.85" incLanes="E9_0" intLanes=":J0_0_0" shape="53.15,94.45 52.21,91.39 50.67,94.20 51.48,94.52 51.89,94.59 52.30,94.60 52.72,94.55">
        <request index="0" response="0" foes="0" cont="0"/>
    </junction>
    <junction id="J1" type="priority" x="101.50" y="79.53" incLanes="E0_0" intLanes=":J1_0_0" shape="102.03,77.99 99.00,76.95 99.94,80.01 100.87,79.57 101.24,79.26 101.56,78.90 101.82,78.48">
        <request index="0" response="0" foes="0" cont="0"/>
    </junction>
    <junction id="J10" type="dead_end" x="-16.74" y="7.01" incLanes="" intLanes="" shape="-16.74,7.01"/>
    <junction id="J2" type="priority" x="112.68" y="47.12" incLanes="E1_0" intLanes=":J2_0_0" shape="112.69,46.61 109.49,46.57 112.51,47.61 112.63,47.25 112.66,47.12 112.68,46.99 112.69,46.82">
        <request index="0" response="0" foes="0" cont="0"/>
    </junction>
    <junction id="J3" type="priority" x="113.07" y="12.02" incLanes="E2_0" intLanes=":J3_0_0" shape="112.20,11.08 109.85,13.27 113.05,13.30 113.02,12.39 112.93,12.07 112.78,11.78 112.54,11.47">
        <request index="0" response="0" foes="0" cont="0"/>
    </junction>
    <junction id="J4" type="priority" x="89.54" y="-13.25" incLanes="E3_0" intLanes=":J4_0_0" shape="88.10,-10.10 90.44,-12.28 89.76,-12.93 89.47,-13.10 89.15,-13.21 88.75,-13.27 88.21,-13.29">
        <request index="0" response="0" foes="0" cont="0"/>
    </junction>
    <junction id="J5" type="priority" x="52.31" y="-14.60" incLanes="E4_0" intLanes=":J5_0_0" shape="52.58,-11.38 52.70,-14.58 52.41,-14.59 52.31,-14.58 52.21,-14.57 52.09,-14.55 51.93,-14.52">
        <request index="0" response="0" foes="0" cont="0"/>
    </junction>
    <junction id="J6" type="priority" x="19.91" y="-7.85" incLanes="E5_0" intLanes=":J6_0_0" shape="21.44,-4.90 20.79,-8.03 20.15,-7.88 19.94,-7.79 19.74,-7.66 19.53,-7.48 19.25,-7.23">
        <request index="0" response="0" foes="0" cont="0"/>
    </junction>
    <junction id="J7" type="priority" x="-4.97" y="15.49" incLanes="E6_0" intLanes=":J7_0_0" shape="-4.91,16.96 -1.72,16.82 -3.90,14.49 -4.49,15.21 -4.69,15.61 -4.83,16.03 -4.90,16.48">
        <request index="0" response="0" foes="0" cont="0"/>
    </junction>
    <junction id="J8" type="priority" x="-3.82" y="43.65" incLanes="E7_0" intLanes=":J8_0_0" shape="-3.36,44.37 -0.65,42.67 -3.85,42.80 -3.81,43.42 -3.76,43.63 -3.68,43.84 -3.55,44.07">
        <request index="0" response="0" foes="0" cont="0"/>
    </junction>
    <junction id="J9" type="priority" x="16.05" y="75.28" incLanes="E8_0" intLanes=":J9_0_0" shape="16.78,75.68 18.32,72.88 15.61,74.58 15.95,75.08 16.09,75.24 16.26,75.38 16.48,75.52">
        <request index="0" response="0" foes="0" cont="0"/>
    </junction>

    <connection from="E0" to="E1" fromLane="0" toLane="0" via=":J1_0_0" dir="r" state="M"/>
    <connection from="E1" to="E2" fromLane="0" toLane="0" via=":J2_0_0" dir="s" state="M"/>
    <connection from="E2" to="E3" fromLane="0" toLane="0" via=":J3_0_0" dir="s" state="M"/>
    <connection from="E3" to="E4" fromLane="0" toLane="0" via=":J4_0_0" dir="r" state="M"/>
    <connection from="E4" to="E5" fromLane="0" toLane="0" via=":J5_0_0" dir="s" state="M"/>
    <connection from="E5" to="E6" fromLane="0" toLane="0" via=":J6_0_0" dir="s" state="M"/>
    <connection from="E6" to="E7" fromLane="0" toLane="0" via=":J7_0_0" dir="r" state="M"/>
    <connection from="E7" to="E8" fromLane="0" toLane="0" via=":J8_0_0" dir="s" state="M"/>
    <connection from="E8" to="E9" fromLane="0" toLane="0" via=":J9_0_0" dir="s" state="M"/>
    <connection from="E9" to="E0" fromLane="0" toLane="0" via=":J0_0_0" dir="r" state="M"/>

    <connection from=":J0_0" to="E0" fromLane="0" toLane="0" dir="r" state="M"/>
    <connection from=":J1_0" to="E1" fromLane="0" toLane="0" dir="r" state="M"/>
    <connection from=":J2_0" to="E2" fromLane="0" toLane="0" dir="s" state="M"/>
    <connection from=":J3_0" to="E3" fromLane="0" toLane="0" dir="s" state="M"/>
    <connection from=":J4_0" to="E4" fromLane="0" toLane="0" dir="r" state="M"/>
    <connection from=":J5_0" to="E5" fromLane="0" toLane="0" dir="s" state="M"/>
    <connection from=":J6_0" to="E6" fromLane="0" toLane="0" dir="s" state="M"/>
    <connection from=":J7_0" to="E7" fromLane="0" toLane="0" dir="r" state="M"/>
    <connection from=":J8_0" to="E8" fromLane="0" toLane="0" dir="s" state="M"/>
    <connection from=":J9_0" to="E9" fromLane="0" toLane="0" dir="s" state="M"/>

</net>
